/*--------------------------------*- C++ -*----------------------------------*\
| =========                 |                                                 |
| \\      /  F ield         | OpenFOAM: The Open Source CFD Toolbox           |
|  \\    /   O peration     | Version:  v2512                                 |
|   \\  /    A nd           | Website:  www.openfoam.com                      |
|    \\/     M anipulation  |                                                 |
\*---------------------------------------------------------------------------*/
FoamFile
{
    version     2.0;
    format      ascii;
    class       volScalarField;
    object      T;
}
// * * * * * * * * * * * * * * * * * * * * * * * * * * * * * * * * * * * * * //

dimensions      [0 0 0 1 0 0 0];

internalField   uniform 296;

boundaryField
{
    inlet
    {
        type            fixedValue;
        value           $internalField;
    }

    outlet
    {
        type            inletOutlet;
        value           $internalField;
        inletValue      $internalField;
    }

    defaultFaces
    {
        type            zeroGradient;
    }

    "(front|back)"
    {
        type            empty;
    }

    "(lowerWallStartup|upperWallStartup)"
    {
        type            symmetryPlane;
    }

    "(upperWall|lowerWall)"
    {
        type            zeroGradient;
    }

}


// ************************************************************************* //
